/*--------------------------------*- C++ -*----------------------------------*\
| =========                 |                                                 |
| \\      /  F ield         | OpenFOAM: The Open Source CFD Toolbox           |
|  \\    /   O peration     | Version:  2306                                  |
|   \\  /    A nd           | Website:  www.openfoam.com                      |
|    \\/     M anipulation  |                                                 |
\*---------------------------------------------------------------------------*/
FoamFile
{
    version     2.0;
    format      binary;
    arch        "LSB;label=32;scalar=64";
    class       polyBoundaryMesh;
    location    "constant/polyMesh";
    object      boundary;
}
// * * * * * * * * * * * * * * * * * * * * * * * * * * * * * * * * * * * * * //

9
(
    XMin
    {
        type            wall;
        inGroups        1(wall);
        nFaces          1342;
        startFace       103367;
    }
    XMax
    {
        type            wall;
        inGroups        1(wall);
        nFaces          0;
        startFace       104709;
    }
    YMin
    {
        type            wall;
        inGroups        1(wall);
        nFaces          1222;
        startFace       104709;
    }
    YMax
    {
        type            wall;
        inGroups        1(wall);
        nFaces          1135;
        startFace       105931;
    }
    ZMin
    {
        type            wall;
        inGroups        1(wall);
        nFaces          0;
        startFace       107066;
    }
    ZMax
    {
        type            wall;
        inGroups        1(wall);
        nFaces          0;
        startFace       107066;
    }
    procBoundary4to2
    {
        type            processor;
        inGroups        1(processor);
        nFaces          743;
        startFace       107066;
        matchTolerance  0.0001;
        transform       unknown;
        myProcNo        4;
        neighbProcNo    2;
    }
    procBoundary4to3
    {
        type            processor;
        inGroups        1(processor);
        nFaces          1399;
        startFace       107809;
        matchTolerance  0.0001;
        transform       unknown;
        myProcNo        4;
        neighbProcNo    3;
    }
    procBoundary4to6
    {
        type            processor;
        inGroups        1(processor);
        nFaces          1265;
        startFace       109208;
        matchTolerance  0.0001;
        transform       unknown;
        myProcNo        4;
        neighbProcNo    6;
    }
)

// ************************************************************************* //
