/*--------------------------------*- C++ -*----------------------------------*\
| =========                 |                                                 |
| \\      /  F ield         | OpenFOAM: The Open Source CFD Toolbox           |
|  \\    /   O peration     | Version:  2306                                  |
|   \\  /    A nd           | Website:  www.openfoam.com                      |
|    \\/     M anipulation  |                                                 |
\*---------------------------------------------------------------------------*/
FoamFile
{
    version     2.0;
    format      binary;
    arch        "LSB;label=32;scalar=64";
    class       polyBoundaryMesh;
    location    "constant/polyMesh";
    object      boundary;
}
// * * * * * * * * * * * * * * * * * * * * * * * * * * * * * * * * * * * * * //

9
(
    XMin
    {
        type            wall;
        inGroups        1(wall);
        nFaces          0;
        startFace       102212;
    }
    XMax
    {
        type            wall;
        inGroups        1(wall);
        nFaces          882;
        startFace       102212;
    }
    YMin
    {
        type            wall;
        inGroups        1(wall);
        nFaces          1148;
        startFace       103094;
    }
    YMax
    {
        type            wall;
        inGroups        1(wall);
        nFaces          1210;
        startFace       104242;
    }
    ZMin
    {
        type            wall;
        inGroups        1(wall);
        nFaces          0;
        startFace       105452;
    }
    ZMax
    {
        type            wall;
        inGroups        1(wall);
        nFaces          1508;
        startFace       105452;
    }
    procBoundary1to0
    {
        type            processor;
        inGroups        1(processor);
        nFaces          1924;
        startFace       106960;
        matchTolerance  0.0001;
        transform       unknown;
        myProcNo        1;
        neighbProcNo    0;
    }
    procBoundary1to2
    {
        type            processor;
        inGroups        1(processor);
        nFaces          564;
        startFace       108884;
        matchTolerance  0.0001;
        transform       unknown;
        myProcNo        1;
        neighbProcNo    2;
    }
    procBoundary1to3
    {
        type            processor;
        inGroups        1(processor);
        nFaces          44;
        startFace       109448;
        matchTolerance  0.0001;
        transform       unknown;
        myProcNo        1;
        neighbProcNo    3;
    }
)

// ************************************************************************* //
