/*--------------------------------*- C++ -*----------------------------------*\
| =========                 |                                                 |
| \\      /  F ield         | OpenFOAM: The Open Source CFD Toolbox           |
|  \\    /   O peration     | Version:  2306                                  |
|   \\  /    A nd           | Website:  www.openfoam.com                      |
|    \\/     M anipulation  |                                                 |
\*---------------------------------------------------------------------------*/
FoamFile
{
    version     2.0;
    format      binary;
    arch        "LSB;label=32;scalar=64";
    class       polyBoundaryMesh;
    location    "constant/polyMesh";
    object      boundary;
}
// * * * * * * * * * * * * * * * * * * * * * * * * * * * * * * * * * * * * * //

9
(
    XMin
    {
        type            wall;
        inGroups        1(wall);
        nFaces          622;
        startFace       103780;
    }
    XMax
    {
        type            wall;
        inGroups        1(wall);
        nFaces          0;
        startFace       104402;
    }
    YMin
    {
        type            wall;
        inGroups        1(wall);
        nFaces          1153;
        startFace       104402;
    }
    YMax
    {
        type            wall;
        inGroups        1(wall);
        nFaces          1239;
        startFace       105555;
    }
    ZMin
    {
        type            wall;
        inGroups        1(wall);
        nFaces          1686;
        startFace       106794;
    }
    ZMax
    {
        type            wall;
        inGroups        1(wall);
        nFaces          0;
        startFace       108480;
    }
    procBoundary5to6
    {
        type            processor;
        inGroups        1(processor);
        nFaces          1584;
        startFace       108480;
        matchTolerance  0.0001;
        transform       unknown;
        myProcNo        5;
        neighbProcNo    6;
    }
    procBoundary5to7
    {
        type            processor;
        inGroups        1(processor);
        nFaces          628;
        startFace       110064;
        matchTolerance  0.0001;
        transform       unknown;
        myProcNo        5;
        neighbProcNo    7;
    }
    procBoundary5to9
    {
        type            processor;
        inGroups        1(processor);
        nFaces          364;
        startFace       110692;
        matchTolerance  0.0001;
        transform       unknown;
        myProcNo        5;
        neighbProcNo    9;
    }
)

// ************************************************************************* //
