/*--------------------------------*- C++ -*----------------------------------*\
| =========                 |                                                 |
| \\      /  F ield         | OpenFOAM: The Open Source CFD Toolbox           |
|  \\    /   O peration     | Version:  2306                                  |
|   \\  /    A nd           | Website:  www.openfoam.com                      |
|    \\/     M anipulation  |                                                 |
\*---------------------------------------------------------------------------*/
FoamFile
{
    version     2.0;
    format      binary;
    arch        "LSB;label=32;scalar=64";
    class       polyBoundaryMesh;
    location    "constant/polyMesh";
    object      boundary;
}
// * * * * * * * * * * * * * * * * * * * * * * * * * * * * * * * * * * * * * //

9
(
    XMin
    {
        type            wall;
        inGroups        1(wall);
        nFaces          0;
        startFace       103363;
    }
    XMax
    {
        type            wall;
        inGroups        1(wall);
        nFaces          696;
        startFace       103363;
    }
    YMin
    {
        type            wall;
        inGroups        1(wall);
        nFaces          1172;
        startFace       104059;
    }
    YMax
    {
        type            wall;
        inGroups        1(wall);
        nFaces          1205;
        startFace       105231;
    }
    ZMin
    {
        type            wall;
        inGroups        1(wall);
        nFaces          1554;
        startFace       106436;
    }
    ZMax
    {
        type            wall;
        inGroups        1(wall);
        nFaces          0;
        startFace       107990;
    }
    procBoundary7to5
    {
        type            processor;
        inGroups        1(processor);
        nFaces          628;
        startFace       107990;
        matchTolerance  0.0001;
        transform       unknown;
        myProcNo        7;
        neighbProcNo    5;
    }
    procBoundary7to8
    {
        type            processor;
        inGroups        1(processor);
        nFaces          904;
        startFace       108618;
        matchTolerance  0.0001;
        transform       unknown;
        myProcNo        7;
        neighbProcNo    8;
    }
    procBoundary7to9
    {
        type            processor;
        inGroups        1(processor);
        nFaces          895;
        startFace       109522;
        matchTolerance  0.0001;
        transform       unknown;
        myProcNo        7;
        neighbProcNo    9;
    }
)

// ************************************************************************* //
