FoamFile
{
    version   2.0;
    format    ascii;
    class     dictionary;
    location  "system";
    object    meshDict;
}

surfaceFile "mix_vulve_m.fms";
maxCellSize 0.005;
boundaryLayers
{
    nLayers 2;
    thicknessRatio 1.1;
    maxFirstLayerThickness 0.5;
    patchBoundaryLayers
    {
        "wall2.*"
        {
            nLayers 2;
            thicknessRatio 1.1;
            maxFirstLayerThickness 0.02;
            allowDiscontinuity 0; 
        }      
    }
}
