/*--------------------------------*- C++ -*----------------------------------*\
| =========                 |                                                 |
| \\      /  F ield         | OpenFOAM: The Open Source CFD Toolbox           |
|  \\    /   O peration     | Version:  2306                                  |
|   \\  /    A nd           | Website:  www.openfoam.com                      |
|    \\/     M anipulation  |                                                 |
\*---------------------------------------------------------------------------*/
FoamFile
{
    version     2.0;
    format      ascii;
    arch        "LSB;label=32;scalar=64";
    class       polyBoundaryMesh;
    location    "constant/polyMesh";
    object      boundary;
}
// * * * * * * * * * * * * * * * * * * * * * * * * * * * * * * * * * * * * * //

3
(
    face
    {
        type            wall;
        inGroups        1(wall);
        nFaces          154;
        startFace       10978;
    }
    outlet
    {
        type            wall;
        inGroups        1(wall);
        nFaces          154;
        startFace       11132;
    }
    wall
    {
        type            wall;
        inGroups        1(wall);
        nFaces          658;
        startFace       11286;
    }
)

// ************************************************************************* //
