/*--------------------------------*- C++ -*----------------------------------*\
| =========                 |                                                 |
| \\      /  F ield         | OpenFOAM: The Open Source CFD Toolbox           |
|  \\    /   O peration     | Version:  2306                                  |
|   \\  /    A nd           | Website:  www.openfoam.com                      |
|    \\/     M anipulation  |                                                 |
\*---------------------------------------------------------------------------*/
FoamFile
{
    version     2.0;
    format      binary;
    arch        "LSB;label=32;scalar=64";
    class       polyBoundaryMesh;
    location    "constant/polyMesh";
    object      boundary;
}
// * * * * * * * * * * * * * * * * * * * * * * * * * * * * * * * * * * * * * //

11
(
    XMin
    {
        type            wall;
        inGroups        1(wall);
        nFaces          0;
        startFace       103452;
    }
    XMax
    {
        type            wall;
        inGroups        1(wall);
        nFaces          453;
        startFace       103452;
    }
    YMin
    {
        type            wall;
        inGroups        1(wall);
        nFaces          1232;
        startFace       103905;
    }
    YMax
    {
        type            wall;
        inGroups        1(wall);
        nFaces          1136;
        startFace       105137;
    }
    ZMin
    {
        type            wall;
        inGroups        1(wall);
        nFaces          0;
        startFace       106273;
    }
    ZMax
    {
        type            wall;
        inGroups        1(wall);
        nFaces          0;
        startFace       106273;
    }
    procBoundary0to1
    {
        type            processor;
        inGroups        1(processor);
        nFaces          1924;
        startFace       106273;
        matchTolerance  0.0001;
        transform       unknown;
        myProcNo        0;
        neighbProcNo    1;
    }
    procBoundary0to2
    {
        type            processor;
        inGroups        1(processor);
        nFaces          50;
        startFace       108197;
        matchTolerance  0.0001;
        transform       unknown;
        myProcNo        0;
        neighbProcNo    2;
    }
    procBoundary0to3
    {
        type            processor;
        inGroups        1(processor);
        nFaces          1031;
        startFace       108247;
        matchTolerance  0.0001;
        transform       unknown;
        myProcNo        0;
        neighbProcNo    3;
    }
    procBoundary0to8
    {
        type            processor;
        inGroups        1(processor);
        nFaces          1138;
        startFace       109278;
        matchTolerance  0.0001;
        transform       unknown;
        myProcNo        0;
        neighbProcNo    8;
    }
    procBoundary0to9
    {
        type            processor;
        inGroups        1(processor);
        nFaces          506;
        startFace       110416;
        matchTolerance  0.0001;
        transform       unknown;
        myProcNo        0;
        neighbProcNo    9;
    }
)

// ************************************************************************* //
