/*--------------------------------*- C++ -*----------------------------------*\
| =========                 |                                                 |
| \\      /  F ield         | OpenFOAM: The Open Source CFD Toolbox           |
|  \\    /   O peration     | Version:  2306                                  |
|   \\  /    A nd           | Website:  www.openfoam.com                      |
|    \\/     M anipulation  |                                                 |
\*---------------------------------------------------------------------------*/
FoamFile
{
    version     2.0;
    format      binary;
    arch        "LSB;label=32;scalar=64";
    class       polyBoundaryMesh;
    location    "constant/polyMesh";
    object      boundary;
}
// * * * * * * * * * * * * * * * * * * * * * * * * * * * * * * * * * * * * * //

12
(
    XMin
    {
        type            wall;
        inGroups        1(wall);
        nFaces          0;
        startFace       103200;
    }
    XMax
    {
        type            wall;
        inGroups        1(wall);
        nFaces          0;
        startFace       103200;
    }
    YMin
    {
        type            wall;
        inGroups        1(wall);
        nFaces          1217;
        startFace       103200;
    }
    YMax
    {
        type            wall;
        inGroups        1(wall);
        nFaces          1171;
        startFace       104417;
    }
    ZMin
    {
        type            wall;
        inGroups        1(wall);
        nFaces          0;
        startFace       105588;
    }
    ZMax
    {
        type            wall;
        inGroups        1(wall);
        nFaces          0;
        startFace       105588;
    }
    procBoundary3to0
    {
        type            processor;
        inGroups        1(processor);
        nFaces          1031;
        startFace       105588;
        matchTolerance  0.0001;
        transform       unknown;
        myProcNo        3;
        neighbProcNo    0;
    }
    procBoundary3to1
    {
        type            processor;
        inGroups        1(processor);
        nFaces          44;
        startFace       106619;
        matchTolerance  0.0001;
        transform       unknown;
        myProcNo        3;
        neighbProcNo    1;
    }
    procBoundary3to2
    {
        type            processor;
        inGroups        1(processor);
        nFaces          1129;
        startFace       106663;
        matchTolerance  0.0001;
        transform       unknown;
        myProcNo        3;
        neighbProcNo    2;
    }
    procBoundary3to4
    {
        type            processor;
        inGroups        1(processor);
        nFaces          1399;
        startFace       107792;
        matchTolerance  0.0001;
        transform       unknown;
        myProcNo        3;
        neighbProcNo    4;
    }
    procBoundary3to6
    {
        type            processor;
        inGroups        1(processor);
        nFaces          322;
        startFace       109191;
        matchTolerance  0.0001;
        transform       unknown;
        myProcNo        3;
        neighbProcNo    6;
    }
    procBoundary3to9
    {
        type            processor;
        inGroups        1(processor);
        nFaces          827;
        startFace       109513;
        matchTolerance  0.0001;
        transform       unknown;
        myProcNo        3;
        neighbProcNo    9;
    }
)

// ************************************************************************* //
