/*--------------------------------*- C++ -*----------------------------------*\
| =========                 |                                                 |
| \\      /  F ield         | OpenFOAM: The Open Source CFD Toolbox           |
|  \\    /   O peration     | Version:  2306                                  |
|   \\  /    A nd           | Website:  www.openfoam.com                      |
|    \\/     M anipulation  |                                                 |
\*---------------------------------------------------------------------------*/
FoamFile
{
    version     2.0;
    format      binary;
    arch        "LSB;label=32;scalar=64";
    class       polyBoundaryMesh;
    location    "constant/polyMesh";
    object      boundary;
}
// * * * * * * * * * * * * * * * * * * * * * * * * * * * * * * * * * * * * * //

10
(
    XMin
    {
        type            wall;
        inGroups        1(wall);
        nFaces          676;
        startFace       102504;
    }
    XMax
    {
        type            wall;
        inGroups        1(wall);
        nFaces          0;
        startFace       103180;
    }
    YMin
    {
        type            wall;
        inGroups        1(wall);
        nFaces          1236;
        startFace       103180;
    }
    YMax
    {
        type            wall;
        inGroups        1(wall);
        nFaces          1086;
        startFace       104416;
    }
    ZMin
    {
        type            wall;
        inGroups        1(wall);
        nFaces          0;
        startFace       105502;
    }
    ZMax
    {
        type            wall;
        inGroups        1(wall);
        nFaces          0;
        startFace       105502;
    }
    procBoundary6to3
    {
        type            processor;
        inGroups        1(processor);
        nFaces          322;
        startFace       105502;
        matchTolerance  0.0001;
        transform       unknown;
        myProcNo        6;
        neighbProcNo    3;
    }
    procBoundary6to4
    {
        type            processor;
        inGroups        1(processor);
        nFaces          1265;
        startFace       105824;
        matchTolerance  0.0001;
        transform       unknown;
        myProcNo        6;
        neighbProcNo    4;
    }
    procBoundary6to5
    {
        type            processor;
        inGroups        1(processor);
        nFaces          1584;
        startFace       107089;
        matchTolerance  0.0001;
        transform       unknown;
        myProcNo        6;
        neighbProcNo    5;
    }
    procBoundary6to9
    {
        type            processor;
        inGroups        1(processor);
        nFaces          1091;
        startFace       108673;
        matchTolerance  0.0001;
        transform       unknown;
        myProcNo        6;
        neighbProcNo    9;
    }
)

// ************************************************************************* //
