/*--------------------------------*- C++ -*----------------------------------*\
| =========                 |                                                 |
| \\      /  F ield         | OpenFOAM: The Open Source CFD Toolbox           |
|  \\    /   O peration     | Version:  2306                                  |
|   \\  /    A nd           | Website:  www.openfoam.com                      |
|    \\/     M anipulation  |                                                 |
\*---------------------------------------------------------------------------*/
FoamFile
{
    version     2.0;
    format      binary;
    arch        "LSB;label=32;scalar=64";
    class       polyBoundaryMesh;
    location    "constant/polyMesh";
    object      boundary;
}
// * * * * * * * * * * * * * * * * * * * * * * * * * * * * * * * * * * * * * //

9
(
    XMin
    {
        type            wall;
        inGroups        1(wall);
        nFaces          0;
        startFace       103101;
    }
    XMax
    {
        type            wall;
        inGroups        1(wall);
        nFaces          1269;
        startFace       103101;
    }
    YMin
    {
        type            wall;
        inGroups        1(wall);
        nFaces          1159;
        startFace       104370;
    }
    YMax
    {
        type            wall;
        inGroups        1(wall);
        nFaces          1206;
        startFace       105529;
    }
    ZMin
    {
        type            wall;
        inGroups        1(wall);
        nFaces          0;
        startFace       106735;
    }
    ZMax
    {
        type            wall;
        inGroups        1(wall);
        nFaces          0;
        startFace       106735;
    }
    procBoundary8to0
    {
        type            processor;
        inGroups        1(processor);
        nFaces          1138;
        startFace       106735;
        matchTolerance  0.0001;
        transform       unknown;
        myProcNo        8;
        neighbProcNo    0;
    }
    procBoundary8to7
    {
        type            processor;
        inGroups        1(processor);
        nFaces          904;
        startFace       107873;
        matchTolerance  0.0001;
        transform       unknown;
        myProcNo        8;
        neighbProcNo    7;
    }
    procBoundary8to9
    {
        type            processor;
        inGroups        1(processor);
        nFaces          1194;
        startFace       108777;
        matchTolerance  0.0001;
        transform       unknown;
        myProcNo        8;
        neighbProcNo    9;
    }
)

// ************************************************************************* //
